<?xml version="1.0" encoding="UTF-8"?>

<!-- generated on 2024-03-15 23:55:46 by Eclipse SUMO netedit Version 1.19.0
-->

<routes xmlns:xsi="http://www.w3.org/2001/XMLSchema-instance" xsi:noNamespaceSchemaLocation="http://sumo.dlr.de/xsd/routes_file.xsd">
    <!-- VTypes -->
    <vType id="motorbike" vClass="motorcycle" color="yellow" carFollowModel="Krauss"/>
    <vType id="motorcar" vClass="passenger" color="red" carFollowModel="Krauss"/>
    <!-- Routes -->
    <route id="attidiya_kohuwela" edges="23185859#4 23185859#5 771873306 771873305#2 776125794 776125790 771873304 161783164#0 161783164#3 161783164#4 668513665 981161569#1 -55090838#17 -55090838#16 -55090838#15 -55090838#14 -55090838#13 -55090838#12 -55090838#11 -55090838#9 -55090838#8 -55090838#7 -55090838#6 -55090838#5 -55090838#4 -55090838#3 -55090838#2 -55090838#0"/>
    <route id="attidiya_mirihana" edges="23185859#4 23185859#5 771873306 771873305#2 776125794 776125790 771873304 161783164#0 161783164#3 161783164#4 771870128#6 161789385#1 161789385#3 161789385#4 161789385#5 161789385#6 161789385#7 161789385#8 161789385#9 557139525#1 557139526#1 557139526#2 557139526#3 557139526#4 557139526#5 557139526#6 557139526#7 E0 161789990#2 161789990#5 E1 E1.54 E4"/>
    <route id="attidiya_nugegoda" edges="23185859#4 23185859#5 771873306 771873305#2 776125794 776125790 771873304 161783164#0 161783164#3 161783164#4 771870128#6 161789385#1 161789385#3 161789385#4 161789385#5 161789385#6 161789385#7 161789385#8 161789385#9 557139525#1 557139526#1 557139526#2 557139526#3 557139526#4 557139526#5 557139526#6 557139526#7 E0 161789990#2 161789990#5 E1 E5 -E2.20 -51064306#2 -50070021#2 -50070021#1"/>
    <route id="attidiya_piliyandala" edges="-374040699 23185859#5 771873306 771873305#2 776125794 776125790 771873304 161783164#0 161783164#3 161783164#4 771870128#6 981161570#0 981161570#1-AddedOnRampEdge 981161570#2 981161570#3 981161570#4 981161570#6 981161570#7 981161570#8 981161570#9 981161570#10 981161570#11 981161570#12 981161570#13 981161571#1 981161571#2 981161572#0 981161572#1-AddedOnRampEdge 981161574#1 981161575.9"/>
    <route id="dehiwala_kohuwela" edges="171529265#0 776125791 776125790 771873304 161783164#0 161783164#3 161783164#4 668513665 981161569#1 -55090838#17 -55090838#16 -55090838#15 -55090838#14 -55090838#13 -55090838#12 -55090838#11 -55090838#9 -55090838#8 -55090838#7 -55090838#6 -55090838#5 -55090838#4 -55090838#3 -55090838#2 -55090838#0"/>
    <route id="dehiwala_nugegoda" edges="171529265#0 776125791 776125790 771873304 161783164#0 161783164#3 161783164#4 771870128#6 161789385#1 161789385#3 161789385#4 161789385#5 161789385#6 161789385#7 161789385#8 161789385#9 557139525#1 557139526#1 557139526#2 557139526#3 557139526#4 557139526#5 557139526#6 557139526#7 E0 161789990#2 161789990#5 E1 E5 -E2.20 -51064306#2 -50070021#2 -50070021#1"/>
    <route id="dehiwala_pannipitiya" edges="171529265#0 776125791 776125790 771873304 161783164#0 161783164#3 161783164#4 771870128#6 161789385#1 161789385#3 161789385#4 161789385#5 161789385#6 161789385#7 161789385#8 161789385#9 557139525#1 557139526#1 557139526#2 557139526#3 557139526#4 557139526#5 557139526#6 557139526#7 E0 161789990#2 161789990#5 E1 E1.54 E3 51064306#7 51064306#8 51064306#9 51064306#10 190918151#1 190918151#2 190918151#3 190918151#3.59 190918151#4 131349573 131349574#1 131349574#3 131349574#5 131349574#6 131349574#8 131349574#9 131349574#11 131349574#12 131349574#14 131349574#15 131349574#16 131349574#17 131349574#18"/>
    <route id="delkanda_piliyandala" edges="23185504#0 23185504#1 23185504#2 23185504#3 23185504#4 23185504#5 23185504#5.93 23351957#0 23351957#2 23351957#3 23351957#4 23351957#5 23351957#6 23351957#7 23351957#8 23351957#9 50133268#0 50133268#2 50133268#3 50133268#4 50133268#5 50133268#6 50133268#7 50133268#8 50133268#9 50133268#10 50133268#11 557140716#0 557139500 981161572#1-AddedOnRampEdge 981161574#1 981161575.9"/>
    <route id="jubilee_post_pannipitiya" edges="23185504#0 23185504#1 23185504#2 23185504#3 23185504#4 23185504#5 E11 131349573 131349574#1 131349574#3 131349574#5 131349574#6 131349574#8 131349574#9 131349574#11 131349574#12 131349574#14 131349574#15 131349574#16 131349574#17 131349574#18"/>
    <route id="kohuwela_attidiya" edges="53337666 55090838#3 55090838#4 55090838#5 55090838#6 55090838#7 55090838#8 55090838#9 55090838#11 55090838#12 55090838#13 55090838#14 55090838#15 55090838#16 55090838#17 981161568#0 981161568#1 -771870128#6 -771870128#4 -161783164#3 -161783164#2 776125789 771873305#0 776125793 -23185859#8 -23185859#4"/>
    <!--shortcut route-->
    <route id="kohuwela_delkanda" edges="55090838#0 55090838#2 55090838#3 55090838#4 55090838#5 55090838#6 55090838#7 55090838#8 55090838#9 55090838#11 55090838#12 55090838#13 55090838#14 55090838#15 55090838#16 55090838#17 981161568#0 668513668 161789385#3 161789385#4 161789385#5 161789385#6 161789385#7 161789385#8 161789385#9 524620535#0 343600488#16 -50133268#1 -23351957#9 -23351957#8 -23351957#7 -23351957#6 -23351957#5 -23351957#4 -23351957#3 -23351957#2 -23351957#1 -23351957#1.149 190918151#4 131349573 -202235454"/>
    <route id="kohuwela_pannipitiya" edges="55090838#0 55090838#2 55090838#3 55090838#4 55090838#5 55090838#6 55090838#7 55090838#8 55090838#9 55090838#11 55090838#12 55090838#13 55090838#14 55090838#15 55090838#16 55090838#17 981161568#0 981161568#1 981161570#0 981161570#1-AddedOnRampEdge 981161570#2 981161570#3 981161570#4 981161570#6 981161570#7 981161570#8 981161570#9 981161570#10 981161570#11 981161570#12 981161570#13 981161571#1 557139501 586727241 -50133268#11 -50133268#10 -50133268#9 -50133268#8 -50133268#7 -50133268#6 -50133268#5 -50133268#4 -50133268#3 -50133268#2 -50133268#1 -23351957#9 -23351957#8 -23351957#7 -23351957#6 -23351957#5 -23351957#4 -23351957#3 -23351957#2 -23351957#1 -23351957#1.149 190918151#4 131349573 131349574#1 131349574#3 131349574#5 131349574#6 131349574#8 131349574#9 131349574#11 131349574#12 131349574#14 131349574#15 131349574#16 131349574#17 131349574#18"/>
    <route id="kohuwela_piliyandala" edges="55090838#0 55090838#2 55090838#3 55090838#4 55090838#5 55090838#6 55090838#7 55090838#8 55090838#9 55090838#11 55090838#12 55090838#13 55090838#14 55090838#15 55090838#16 55090838#17 981161568#0 981161568#1 981161570#0 981161570#1-AddedOnRampEdge 981161570#2 981161570#3 981161570#4 981161570#6 981161570#7 981161570#8 981161570#9 981161570#10 981161570#11 981161570#12 981161570#13 981161571#1 981161571#2 981161572#0 981161572#1-AddedOnRampEdge 981161574#1 981161575.9"/>
    <route id="mirihana_kohuwela" edges="23185504#0 23185504#1 23185504#2 23185504#3 23185504#4 23185504#5 23185504#5.93 -190918151#3 -190918151#3.18 -190918151#2 -190918151#1 -190918151#0 -51064306#9 -51064306#8 -51064306#7 -E3 E6 -E1.19 -161789990#5 -161789990#3 -E0 -557139526#7 -557139526#6 -557139526#5 -557139526#4 -557139526#3 -557139526#2 -557139526#1 -557139526#0 -161789385#9 -161789385#8 -161789385#7 -161789385#6 -161789385#5 -161789385#4 -161789385#3 -161789385#1 981161569#0 981161569#1 -55090838#17 -55090838#16 -55090838#15 -55090838#14 -55090838#13 -55090838#12 -55090838#11 -55090838#9 -55090838#8 -55090838#7 -55090838#6 -55090838#5 -55090838#4 -55090838#3 -55090838#2 -55090838#0"/>
    <route id="mirihana_nugegoda" edges="-E4 -E2 -E2.20 -51064306#2 -50070021#2 -50070021#1"/>
    <route id="mirihana_pannipitiya" edges="-E4 E3 51064306#7 51064306#8 51064306#9 51064306#10 190918151#1 190918151#2 190918151#3 190918151#3.59 190918151#4 131349573 131349574#1 131349574#3 131349574#5 131349574#6 131349574#8 131349574#9 131349574#11 131349574#12 131349574#14 131349574#15 131349574#16 131349574#17 131349574#18"/>
    <route id="nugegoda_delkanda_piliyandala" edges="50070021#0 50070021#2 51064306#0 E2 E3 51064306#7 51064306#8 51064306#9 51064306#10 190918151#1 190918151#2 190918151#3 190918151#3.59 23351957#0 23351957#2 23351957#3 23351957#4 23351957#5 23351957#6 23351957#7 23351957#8 23351957#9 50133268#0 50133268#2 50133268#3 50133268#4 50133268#5 50133268#6 50133268#7 50133268#8 50133268#9 50133268#10 50133268#11 557140716#0 557139500 981161572#1-AddedOnRampEdge 981161574#1 981161575.9"/>
    <route id="nugegoda_jubilee_post" edges="50070021#0 50070021#2 51064306#0 E2 E3 51064306#7 51064306#8 51064306#9 51064306#10 190918151#1 190918151#2 190918151#3 E10 -23185504#6.22 -23185504#4 -23185504#3 -23185504#2 -23185504#1 -23185504#0"/>
    <route id="nugegoda_mirihana" edges="50070021#0 50070021#2 51064306#0 E2 E4"/>
    <route id="nugegoda_pannipitiya" edges="50070021#0 50070021#2 51064306#0 E2 E3 51064306#7 51064306#8 51064306#9 51064306#10 190918151#1 190918151#2 190918151#3 190918151#3.59 190918151#4 131349573 131349574#1 131349574#3 131349574#5 131349574#6 131349574#8 131349574#9 131349574#11 131349574#12 131349574#14 131349574#15 131349574#16 131349574#17 131349574#18"/>
    
    <!-- shortcut route -->
    <route id="nugegoda_piliyandala" edges="50070021#0 50070021#2 51064306#0 E2 -E1 -E1.19 -161789990#5 -161789990#3 -E0 -557139526#7 -557139526#6 -557139526#5 -557139526#4 -53373570#5 -53373570#4 -53373570#3 -53373570#2 -53373570#1 -53373570#0 23351957#7 23351957#8 23351957#9 50133268#0 50133268#2 50133268#3 50133268#4 50133268#5 50133268#6 50133268#7 50133268#8 50133268#9 50133268#10 50133268#11 557140716#0 557139500 981161572#1-AddedOnRampEdge 981161574#1 981161575.9"/>
    <route id="pannipitiya_mirihana" edges="-131349574#18 -131349574#17 -131349574#16 -131349574#15 -131349574#14 -131349574#12 -131349574#11 -131349574#9 -131349574#8 -131349574#6 -131349574#5 -131349574#3 -131349574#1 -131349573 -190918151#4 -190918151#3 -190918151#3.18 -190918151#2 -190918151#1 -190918151#0 -51064306#9 -51064306#8 -51064306#7 -E3 -E3.150 E4"/>
    <route id="pannipitiya_nugegoda" edges="-131349574#18 -131349574#17 -131349574#16 -131349574#15 -131349574#14 -131349574#12 -131349574#11 -131349574#9 -131349574#8 -131349574#6 -131349574#5 -131349574#3 -131349574#1 -131349573 -190918151#4 -190918151#3 -190918151#3.18 -190918151#2 -190918151#1 -190918151#0 -51064306#9 -51064306#8 -51064306#7 -E3 -E3.150 -E2 -E2.20 -51064306#2 -50070021#2 -50070021#1"/>
    <route id="pannipitiya_piliyandala" edges="-131349574#18 -131349574#17 -131349574#16 -131349574#15 -131349574#14 -131349574#12 -131349574#11 -131349574#9 -131349574#8 -131349574#6 -131349574#5 -131349574#3 -131349574#1 -131349573 -190918151#4 23351957#0 23351957#2 23351957#3 23351957#4 23351957#5 23351957#6 23351957#7 23351957#8 23351957#9 50133268#0 50133268#2 50133268#3 50133268#4 50133268#5 50133268#6 50133268#7 50133268#8 50133268#9 50133268#10 50133268#11 557140716#0 557139500 981161572#1-AddedOnRampEdge 981161574#1 981161575.9"/>
    <route id="pepiliyana_delkanda" edges="-53763471#0 981161570#2 981161570#3 981161570#4 981161570#6 981161570#7 981161570#8 981161570#9 981161570#10 981161570#11 981161570#12 981161570#13 981161571#1 557139501 586727241 -50133268#11 -50133268#10 -50133268#9 -50133268#8 -50133268#7 -50133268#6 -50133268#5 -50133268#4 -50133268#3 -50133268#2 -50133268#1 -23351957#9 -23351957#8 -23351957#7 -23351957#6 -23351957#5 -23351957#4 -23351957#3 -23351957#2 174031813#0 -174031815"/>
    <!-- shortcut route -->
    <route id="pepiliyana_piliyandala" edges="557139527 53373572 -557139526#2 -557139526#1 -557139526#0 -161789385#9 -161789385#8 -161789385#7 -161789385#6 -161789385#5 -161789385#4 -161789385#3 668513667 981161570#1-AddedOnRampEdge 981161570#2 981161570#3 981161570#4 981161570#6 981161570#7 981161570#8 981161570#9 981161570#10 981161570#11 981161570#12 981161570#13 981161571#1 981161571#2 981161572#0 981161572#1-AddedOnRampEdge 981161574#1 981161575.9"/>
    <route id="piliyandala_dehiwala" edges="385939357 557140714#1.13 557140715#0 557140715#1 557140715#2 23323033#2 23323033#3 23323033#4 23323033#5 23323033#6 23323033#8 23323033#9 23323033#10 23323033#11 668513666 -771870128#4 -161783164#3 -161783164#2 776125789 771873305#0 771873305#1 771873305#2 776125792 -171529265#5"/>
    <route id="piliyandala_kohuwela" edges="385939357 557140714#1.13 557140715#0 557140715#1 557140715#2 23323033#2 23323033#3 23323033#4 23323033#5 23323033#6 23323033#8 23323033#9 23323033#10 23323033#11 23323033#12 981161569#0 981161569#1 -55090838#17 -55090838#16 -55090838#15 -55090838#14 -55090838#13 -55090838#12 -55090838#11 -55090838#9 -55090838#8 -55090838#7 -55090838#6 -55090838#5 -55090838#4 -55090838#3 -55090838#2 -55090838#0"/>
    <route id="piliyandala_mirihana" edges="385939357 557140714#1.13 981161567 586727241 -50133268#11 -50133268#10 -50133268#9 -50133268#8 -50133268#7 -50133268#6 -50133268#5 -50133268#4 -50133268#3 -50133268#2 -50133268#1 -23351957#9 -23351957#8 -23351957#7 -23351957#6 -23351957#5 -23351957#4 -23351957#3 -23351957#2 -23351957#1 -23351957#1.149 -23185504#6 -23185504#6.22 -23185504#4 -23185504#3 -23185504#2 -23185504#1 -23185504#0"/>
    <route id="piliyandala_nugegoda" edges="385939357 557140714#1.13 981161567 586727241 -50133268#11 -50133268#10 -50133268#9 -50133268#8 -50133268#7 -50133268#6 -50133268#5 -50133268#4 -50133268#3 -50133268#2 -50133268#1 -23351957#9 -23351957#8 -23351957#7 -23351957#6 -23351957#5 -23351957#4 -23351957#3 -23351957#2 -23351957#1 E12 -190918151#3.18 -190918151#2 -190918151#1 -190918151#0 -51064306#9 -51064306#8 -51064306#7 -E3 -E3.150 -E2 -E2.20 -51064306#2 -50070021#2 -50070021#1"/>
    <route id="piliyandala_pepiliyana_nugegoda" edges="385939357 557140714#1.13 557140715#0 557140715#1 557140715#2 23323033#2 23323033#3 23323033#4 23323033#5 23323033#6 23323033#8 23323033#9 23323033#10 23323033#11 23323033#12 161789385#1 161789385#3 161789385#4 161789385#5 161789385#6 161789385#7 161789385#8 161789385#9 557139525#1 557139526#1 557139526#2 557139526#3 557139526#4 557139526#5 557139526#6 557139526#7 E0 161789990#2 161789990#5 E1 E5 -E2.20 -51064306#2 -50070021#2 -50070021#1"/>
    <!-- Vehicles, persons and containers (sorted by depart) -->

    <flow id="attidiya_kohuwela_motorbike_0_200" type="motorbike" begin="0" route="attidiya_kohuwela" end="200" departSpeed="max" departPos="base" departLane="best" vehsPerHour="138"/>
    <flow id="attidiya_mirihana_motorbike_0_200" type="motorbike" begin="0" route="attidiya_mirihana" end="200" departSpeed="max" departPos="base" departLane="best" vehsPerHour="123"/>
    <flow id="attidiya_nugegoda_motorbike_0_200" type="motorbike" begin="0" route="attidiya_nugegoda" end="200" departSpeed="max" departPos="base" departLane="best" vehsPerHour="141"/>
    <flow id="attidiya_piliyandala_motorbike_0_200" type="motorbike" begin="0" route="attidiya_piliyandala" end="200" departSpeed="max" departPos="base" departLane="best" vehsPerHour="120"/>
    <flow id="dehiwala_kohuwela_motorbike_0_200" type="motorbike" begin="0" route="dehiwala_kohuwela" end="200" departSpeed="max" departPos="base" departLane="best" vehsPerHour="177"/>
    <flow id="dehiwala_nugegoda_motorcar_0_200" type="motorcar" begin="0" route="dehiwala_nugegoda" end="200" departSpeed="max" departPos="base" departLane="best" vehsPerHour="43"/>
    <flow id="dehiwala_pannipitiya_motorbike_0_200" type="motorbike" begin="0" route="dehiwala_pannipitiya" end="200" departSpeed="max" departPos="base" departLane="best" vehsPerHour="231"/>
    <flow id="delkanda_piliyandala_motorcar_0_200" type="motorcar" begin="0" route="delkanda_piliyandala" end="200" departSpeed="max" departPos="base" departLane="best" vehsPerHour="43"/>
    <flow id="jubilee_post_pannipitiya_motorcar_0_200" type="motorcar" begin="0" route="jubilee_post_pannipitiya" end="200" departSpeed="max" departPos="base" departLane="best" vehsPerHour="53"/>
    <flow id="kohuwela_attidiya_motorcar_0_200" type="motorcar" begin="0" route="kohuwela_attidiya" end="200" departSpeed="max" departPos="base" departLane="best" vehsPerHour="45"/>
    <flow id="kohuwela_pannipitiya_motorcar_0_200" type="motorcar" begin="0" route="kohuwela_pannipitiya" end="200" departSpeed="max" departPos="base" departLane="best" vehsPerHour="55"/>
    <flow id="kohuwela_piliyandala_motorcar_0_200" type="motorcar" begin="0" route="kohuwela_piliyandala" end="200" departSpeed="max" departPos="base" departLane="best" vehsPerHour="49"/>
    <flow id="mirihana_kohuwela_motorbike_0_200" type="motorbike" begin="0" route="mirihana_kohuwela" end="200" departSpeed="max" departPos="base" departLane="best" vehsPerHour="165"/>
    <flow id="mirihana_nugegoda_motorcar_0_200" type="motorcar" begin="0" route="mirihana_nugegoda" end="200" departSpeed="max" departPos="base" departLane="best" vehsPerHour="52"/>
    <flow id="mirihana_pannipitiya_motorbike_0_200" type="motorbike" begin="0" route="mirihana_pannipitiya" end="200" departSpeed="max" departPos="base" departLane="best" vehsPerHour="135"/>
    <flow id="nugegoda_delkanda_piliyandala_motorcar_0_200" type="motorcar" begin="0" route="nugegoda_delkanda_piliyandala" end="200" departSpeed="max" departPos="base" departLane="best" vehsPerHour="51"/>
    <flow id="nugegoda_jubilee_post_motorcar_0_200" type="motorcar" begin="0" route="nugegoda_jubilee_post" end="200" departSpeed="max" departPos="base" departLane="best" vehsPerHour="57"/>
    <flow id="nugegoda_mirihana_motorcar_0_200" type="motorcar" begin="0" route="nugegoda_mirihana" end="200" departSpeed="max" departPos="base" departLane="best" vehsPerHour="56"/>
    <flow id="nugegoda_pannipitiya_motorcar_0_200" type="motorcar" begin="0" route="nugegoda_pannipitiya" end="200" departSpeed="max" departPos="base" departLane="best" vehsPerHour="75"/>
    <flow id="pannipitiya_mirihana_motorbike_0_200" type="motorbike" begin="0" route="pannipitiya_mirihana" end="200" departSpeed="max" departPos="base" departLane="best" vehsPerHour="237"/>
    <flow id="pannipitiya_nugegoda_motorcar_0_200" type="motorcar" begin="0" route="pannipitiya_nugegoda" end="200" departSpeed="max" departPos="base" departLane="best" vehsPerHour="79"/>
    <flow id="pannipitiya_piliyandala_motorcar_0_200" type="motorcar" begin="0" route="pannipitiya_piliyandala" end="200" departSpeed="max" departPos="base" departLane="best" vehsPerHour="69"/>
    <flow id="pepiliyana_delkanda_motorcar_0_200" type="motorcar" begin="0" route="pepiliyana_delkanda" end="200" departSpeed="max" departPos="base" departLane="best" vehsPerHour="57"/>
    <flow id="piliyandala_dehiwala_motorbike_0_200" type="motorbike" begin="0" route="piliyandala_dehiwala" end="200" departSpeed="max" departPos="base" departLane="best" vehsPerHour="126"/>
    <flow id="piliyandala_kohuwela_motorcar_0_200" type="motorcar" begin="0" route="piliyandala_kohuwela" end="200" departSpeed="max" departPos="base" departLane="best" vehsPerHour="53"/>
    <flow id="piliyandala_mirihana_motorcar_0_200" type="motorcar" begin="0" route="piliyandala_mirihana" end="200" departSpeed="max" departPos="base" departLane="best" vehsPerHour="51"/>
    <flow id="piliyandala_nugegoda_motorbike_0_200" type="motorbike" begin="0" route="piliyandala_nugegoda" end="200" departSpeed="max" departPos="base" departLane="best" vehsPerHour="186"/>
    <flow id="piliyandala_pepiliyana_nugegoda_motorcar_0_200" type="motorcar" begin="0" route="piliyandala_pepiliyana_nugegoda" end="200" departSpeed="max" departPos="base" departLane="best" vehsPerHour="42"/>


    <flow id="attidiya_kohuwela_motorcar_200_1000" type="motorcar" begin="200" route="attidiya_kohuwela" end="1000" departSpeed="max" departPos="base" departLane="best" vehsPerHour="51"/>
    <flow id="attidiya_mirihana_motorcar_200_1000" type="motorcar" begin="200" route="attidiya_mirihana" end="1000" departSpeed="max" departPos="base" departLane="best" vehsPerHour="64"/>
    <flow id="attidiya_nugegoda_motorcar_200_1000" type="motorcar" begin="200" route="attidiya_nugegoda" end="1000" departSpeed="max" departPos="base" departLane="best" vehsPerHour="51"/>
    <flow id="attidiya_piliyandala_motorcar_200_1000" type="motorcar" begin="200" route="attidiya_piliyandala" end="1000" departSpeed="max" departPos="base" departLane="best" vehsPerHour="76"/>
    <flow id="dehiwala_kohuwela_motorcar_200_1000" type="motorcar" begin="200" route="dehiwala_kohuwela" end="1000" departSpeed="max" departPos="base" departLane="best" vehsPerHour="49"/>
    <flow id="dehiwala_nugegoda_motorcar_200_1000" type="motorcar" begin="200" route="dehiwala_nugegoda" end="1000" departSpeed="max" departPos="base" departLane="best" vehsPerHour="47"/>
    <flow id="dehiwala_pannipitiya_motorcar_200_1000" type="motorcar" begin="200" route="dehiwala_pannipitiya" end="1000" departSpeed="max" departPos="base" departLane="best" vehsPerHour="48"/>
    <flow id="delkanda_piliyandala_motorcar_200_1000" type="motorcar" begin="200" route="delkanda_piliyandala" end="1000" departSpeed="max" departPos="base" departLane="best" vehsPerHour="49"/>
    <flow id="jubilee_post_pannipitiya_motorcar_200_1000" type="motorcar" begin="200" route="jubilee_post_pannipitiya" end="1000" departSpeed="max" departPos="base" departLane="best" vehsPerHour="58"/>
    <flow id="kohuwela_attidiya_motorcar_200_1000" type="motorcar" begin="200" route="kohuwela_attidiya" end="1000" departSpeed="max" departPos="base" departLane="best" vehsPerHour="52"/>
    <flow id="kohuwela_pannipitiya_motorcar_200_1000" type="motorcar" begin="200" route="kohuwela_pannipitiya" end="1000" departSpeed="max" departPos="base" departLane="best" vehsPerHour="57"/>
    <flow id="kohuwela_piliyandala_motorcar_200_1000" type="motorcar" begin="200" route="kohuwela_piliyandala" end="1000" departSpeed="max" departPos="base" departLane="best" vehsPerHour="50"/>
    <flow id="mirihana_kohuwela_motorcar_200_1000" type="motorcar" begin="200" route="mirihana_kohuwela" end="1000" departSpeed="max" departPos="base" departLane="best" vehsPerHour="59"/>
    <flow id="mirihana_nugegoda_motorcar_200_1000" type="motorcar" begin="200" route="mirihana_nugegoda" end="1000" departSpeed="max" departPos="base" departLane="best" vehsPerHour="59"/>
    <flow id="mirihana_pannipitiya_motorcar_200_1000" type="motorcar" begin="200" route="mirihana_pannipitiya" end="1000" departSpeed="max" departPos="base" departLane="best" vehsPerHour="73"/>
    <flow id="nugegoda_delkanda_piliyandala_motorcar_200_1000" type="motorcar" begin="200" route="nugegoda_delkanda_piliyandala" end="1000" departSpeed="max" departPos="base" departLane="best" vehsPerHour="47"/>
    <flow id="nugegoda_jubilee_post_motorcar_200_1000" type="motorcar" begin="200" route="nugegoda_jubilee_post" end="1000" departSpeed="max" departPos="base" departLane="best" vehsPerHour="71"/>
    <flow id="nugegoda_mirihana_motorcar_200_1000" type="motorcar" begin="200" route="nugegoda_mirihana" end="1000" departSpeed="max" departPos="base" departLane="best" vehsPerHour="47"/>
    <flow id="nugegoda_pannipitiya_motorcar_200_1000" type="motorcar" begin="200" route="nugegoda_pannipitiya" end="1000" departSpeed="max" departPos="base" departLane="best" vehsPerHour="62"/>
    <flow id="pannipitiya_mirihana_motorcar_200_1000" type="motorcar" begin="200" route="pannipitiya_mirihana" end="1000" departSpeed="max" departPos="base" departLane="best" vehsPerHour="43"/>
    <flow id="pannipitiya_nugegoda_motorcar_200_1000" type="motorcar" begin="200" route="pannipitiya_nugegoda" end="1000" departSpeed="max" departPos="base" departLane="best" vehsPerHour="50"/>
    <flow id="pannipitiya_piliyandala_motorcar_200_1000" type="motorcar" begin="200" route="pannipitiya_piliyandala" end="1000" departSpeed="max" departPos="base" departLane="best" vehsPerHour="61"/>
    <flow id="pepiliyana_delkanda_motorcar_200_1000" type="motorcar" begin="200" route="pepiliyana_delkanda" end="1000" departSpeed="max" departPos="base" departLane="best" vehsPerHour="63"/>
    <flow id="piliyandala_dehiwala_motorcar_200_1000" type="motorcar" begin="200" route="piliyandala_dehiwala" end="1000" departSpeed="max" departPos="base" departLane="best" vehsPerHour="64"/>
    <flow id="piliyandala_kohuwela_motorcar_200_1000" type="motorcar" begin="200" route="piliyandala_kohuwela" end="1000" departSpeed="max" departPos="base" departLane="best" vehsPerHour="71"/>
    <flow id="piliyandala_mirihana_motorcar_200_1000" type="motorcar" begin="200" route="piliyandala_mirihana" end="1000" departSpeed="max" departPos="base" departLane="best" vehsPerHour="63"/>
    <flow id="piliyandala_nugegoda_motorcar_200_1000" type="motorcar" begin="200" route="piliyandala_nugegoda" end="1000" departSpeed="max" departPos="base" departLane="best" vehsPerHour="72"/>
    <flow id="piliyandala_pepiliyana_nugegoda_motorcar_200_1000" type="motorcar" begin="200" route="piliyandala_pepiliyana_nugegoda" end="1000" departSpeed="max" departPos="base" departLane="best" vehsPerHour="57"/>


    <flow id="attidiya_kohuwela_motorbike_1000_2000" type="motorbike" begin="1000" route="attidiya_kohuwela" end="2000" departSpeed="max" departPos="base" departLane="best" vehsPerHour="141"/>
    <flow id="attidiya_mirihana_motorbike_1000_2000" type="motorbike" begin="1000" route="attidiya_mirihana" end="2000" departSpeed="max" departPos="base" departLane="best" vehsPerHour="159"/>
    <flow id="attidiya_nugegoda_motorbike_1000_2000" type="motorbike" begin="1000" route="attidiya_nugegoda" end="2000" departSpeed="max" departPos="base" departLane="best" vehsPerHour="159"/>
    <flow id="attidiya_piliyandala_motorbike_1000_2000" type="motorbike" begin="1000" route="attidiya_piliyandala" end="2000" departSpeed="max" departPos="base" departLane="best" vehsPerHour="147"/>
    <flow id="dehiwala_kohuwela_motorbike_1000_2000" type="motorbike" begin="1000" route="dehiwala_kohuwela" end="2000" departSpeed="max" departPos="base" departLane="best" vehsPerHour="138"/>
    <flow id="dehiwala_nugegoda_motorcar_1000_2000" type="motorcar" begin="1000" route="dehiwala_nugegoda" end="2000" departSpeed="max" departPos="base" departLane="best" vehsPerHour="45"/>
    <flow id="dehiwala_pannipitiya_motorbike_1000_2000" type="motorbike" begin="1000" route="dehiwala_pannipitiya" end="2000" departSpeed="max" departPos="base" departLane="best" vehsPerHour="216"/>
    <flow id="delkanda_piliyandala_motorcar_1000_2000" type="motorcar" begin="1000" route="delkanda_piliyandala" end="2000" departSpeed="max" departPos="base" departLane="best" vehsPerHour="56"/>
    <flow id="jubilee_post_pannipitiya_motorcar_1000_2000" type="motorcar" begin="1000" route="jubilee_post_pannipitiya" end="2000" departSpeed="max" departPos="base" departLane="best" vehsPerHour="46"/>
    <flow id="kohuwela_attidiya_motorcar_1000_2000" type="motorcar" begin="1000" route="kohuwela_attidiya" end="2000" departSpeed="max" departPos="base" departLane="best" vehsPerHour="49"/>
    <flow id="kohuwela_pannipitiya_motorcar_1000_2000" type="motorcar" begin="1000" route="kohuwela_pannipitiya" end="2000" departSpeed="max" departPos="base" departLane="best" vehsPerHour="63"/>
    <flow id="kohuwela_piliyandala_motorcar_1000_2000" type="motorcar" begin="1000" route="kohuwela_piliyandala" end="2000" departSpeed="max" departPos="base" departLane="best" vehsPerHour="59"/>
    <flow id="mirihana_kohuwela_motorbike_1000_2000" type="motorbike" begin="1000" route="mirihana_kohuwela" end="2000" departSpeed="max" departPos="base" departLane="best" vehsPerHour="147"/>
    <flow id="mirihana_nugegoda_motorcar_1000_2000" type="motorcar" begin="1000" route="mirihana_nugegoda" end="2000" departSpeed="max" departPos="base" departLane="best" vehsPerHour="56"/>
    <flow id="mirihana_pannipitiya_motorbike_1000_2000" type="motorbike" begin="1000" route="mirihana_pannipitiya" end="2000" departSpeed="max" departPos="base" departLane="best" vehsPerHour="126"/>
    <flow id="nugegoda_delkanda_piliyandala_motorcar_1000_2000" type="motorcar" begin="1000" route="nugegoda_delkanda_piliyandala" end="2000" departSpeed="max" departPos="base" departLane="best" vehsPerHour="55"/>
    <flow id="nugegoda_jubilee_post_motorcar_1000_2000" type="motorcar" begin="1000" route="nugegoda_jubilee_post" end="2000" departSpeed="max" departPos="base" departLane="best" vehsPerHour="51"/>
    <flow id="nugegoda_mirihana_motorcar_1000_2000" type="motorcar" begin="1000" route="nugegoda_mirihana" end="2000" departSpeed="max" departPos="base" departLane="best" vehsPerHour="61"/>
    <flow id="nugegoda_pannipitiya_motorcar_1000_2000" type="motorcar" begin="1000" route="nugegoda_pannipitiya" end="2000" departSpeed="max" departPos="base" departLane="best" vehsPerHour="79"/>
    <flow id="pannipitiya_mirihana_motorbike_1000_2000" type="motorbike" begin="1000" route="pannipitiya_mirihana" end="2000" departSpeed="max" departPos="base" departLane="best" vehsPerHour="225"/>
    <flow id="pannipitiya_nugegoda_motorcar_1000_2000" type="motorcar" begin="1000" route="pannipitiya_nugegoda" end="2000" departSpeed="max" departPos="base" departLane="best" vehsPerHour="60"/>
    <flow id="pannipitiya_piliyandala_motorcar_1000_2000" type="motorcar" begin="1000" route="pannipitiya_piliyandala" end="2000" departSpeed="max" departPos="base" departLane="best" vehsPerHour="78"/>
    <flow id="pepiliyana_delkanda_motorcar_1000_2000" type="motorcar" begin="1000" route="pepiliyana_delkanda" end="2000" departSpeed="max" departPos="base" departLane="best" vehsPerHour="57"/>
    <flow id="piliyandala_dehiwala_motorbike_1000_2000" type="motorbike" begin="1000" route="piliyandala_dehiwala" end="2000" departSpeed="max" departPos="base" departLane="best" vehsPerHour="135"/>
    <flow id="piliyandala_kohuwela_motorcar_1000_2000" type="motorcar" begin="1000" route="piliyandala_kohuwela" end="2000" departSpeed="max" departPos="base" departLane="best" vehsPerHour="56"/>
    <flow id="piliyandala_mirihana_motorcar_1000_2000" type="motorcar" begin="1000" route="piliyandala_mirihana" end="2000" departSpeed="max" departPos="base" departLane="best" vehsPerHour="76"/>
    <flow id="piliyandala_nugegoda_motorbike_1000_2000" type="motorbike" begin="1000" route="piliyandala_nugegoda" end="2000" departSpeed="max" departPos="base" departLane="best" vehsPerHour="177"/>