<?xml version="1.0" encoding="UTF-8"?>

<!-- generated on 2024-03-15 23:55:46 by Eclipse SUMO netedit Version 1.19.0
-->

<routes xmlns:xsi="http://www.w3.org/2001/XMLSchema-instance" xsi:noNamespaceSchemaLocation="http://sumo.dlr.de/xsd/routes_file.xsd">
    <!-- VTypes -->
    <vType id="motorbike" vClass="motorcycle" color="yellow" carFollowModel="Krauss"/>
    <vType id="motorcar" vClass="passenger" color="red" carFollowModel="Krauss"/>
    <!-- Routes -->
    <route id="attidiya_kohuwela" edges="23185859#4 23185859#5 771873306 771873305#2 776125794 776125790 771873304 161783164#0 161783164#3 161783164#4 668513665 981161569#1 -55090838#17 -55090838#16 -55090838#15 -55090838#14 -55090838#13 -55090838#12 -55090838#11 -55090838#9 -55090838#8 -55090838#7 -55090838#6 -55090838#5 -55090838#4 -55090838#3 -55090838#2 -55090838#0"/>
    <route id="attidiya_mirihana" edges="23185859#4 23185859#5 771873306 771873305#2 776125794 776125790 771873304 161783164#0 161783164#3 161783164#4 771870128#6 161789385#1 161789385#3 161789385#4 161789385#5 161789385#6 161789385#7 161789385#8 161789385#9 557139525#1 557139526#1 557139526#2 557139526#3 557139526#4 557139526#5 557139526#6 557139526#7 E0 161789990#2 161789990#5 E1 E1.54 E4"/>
    <route id="attidiya_nugegoda" edges="23185859#4 23185859#5 771873306 771873305#2 776125794 776125790 771873304 161783164#0 161783164#3 161783164#4 771870128#6 161789385#1 161789385#3 161789385#4 161789385#5 161789385#6 161789385#7 161789385#8 161789385#9 557139525#1 557139526#1 557139526#2 557139526#3 557139526#4 557139526#5 557139526#6 557139526#7 E0 161789990#2 161789990#5 E1 E5 -E2.20 -51064306#2 -50070021#2 -50070021#1"/>
    <route id="attidiya_piliyandala" edges="-374040699 23185859#5 771873306 771873305#2 776125794 776125790 771873304 161783164#0 161783164#3 161783164#4 771870128#6 981161570#0 981161570#1-AddedOnRampEdge 981161570#2 981161570#3 981161570#4 981161570#6 981161570#7 981161570#8 981161570#9 981161570#10 981161570#11 981161570#12 981161570#13 981161571#1 981161571#2 981161572#0 981161572#1-AddedOnRampEdge 981161574#1 981161575.9"/>
    <route id="dehiwala_kohuwela" edges="171529265#0 776125791 776125790 771873304 161783164#0 161783164#3 161783164#4 668513665 981161569#1 -55090838#17 -55090838#16 -55090838#15 -55090838#14 -55090838#13 -55090838#12 -55090838#11 -55090838#9 -55090838#8 -55090838#7 -55090838#6 -55090838#5 -55090838#4 -55090838#3 -55090838#2 -55090838#0"/>
    <route id="dehiwala_nugegoda" edges="171529265#0 776125791 776125790 771873304 161783164#0 161783164#3 161783164#4 771870128#6 161789385#1 161789385#3 161789385#4 161789385#5 161789385#6 161789385#7 161789385#8 161789385#9 557139525#1 557139526#1 557139526#2 557139526#3 557139526#4 557139526#5 557139526#6 557139526#7 E0 161789990#2 161789990#5 E1 E5 -E2.20 -51064306#2 -50070021#2 -50070021#1"/>
    <route id="dehiwala_pannipitiya" edges="171529265#0 776125791 776125790 771873304 161783164#0 161783164#3 161783164#4 771870128#6 161789385#1 161789385#3 161789385#4 161789385#5 161789385#6 161789385#7 161789385#8 161789385#9 557139525#1 557139526#1 557139526#2 557139526#3 557139526#4 557139526#5 557139526#6 557139526#7 E0 161789990#2 161789990#5 E1 E1.54 E3 51064306#7 51064306#8 51064306#9 51064306#10 190918151#1 190918151#2 190918151#3 190918151#3.59 190918151#4 131349573 131349574#1 131349574#3 131349574#5 131349574#6 131349574#8 131349574#9 131349574#11 131349574#12 131349574#14 131349574#15 131349574#16 131349574#17 131349574#18"/>
    <route id="delkanda_piliyandala" edges="23185504#0 23185504#1 23185504#2 23185504#3 23185504#4 23185504#5 23185504#5.93 23351957#0 23351957#2 23351957#3 23351957#4 23351957#5 23351957#6 23351957#7 23351957#8 23351957#9 50133268#0 50133268#2 50133268#3 50133268#4 50133268#5 50133268#6 50133268#7 50133268#8 50133268#9 50133268#10 50133268#11 557140716#0 557139500 981161572#1-AddedOnRampEdge 981161574#1 981161575.9"/>
    <route id="jubilee_post_pannipitiya" edges="23185504#0 23185504#1 23185504#2 23185504#3 23185504#4 23185504#5 E11 131349573 131349574#1 131349574#3 131349574#5 131349574#6 131349574#8 131349574#9 131349574#11 131349574#12 131349574#14 131349574#15 131349574#16 131349574#17 131349574#18"/>
    <route id="kohuwela_attidiya" edges="53337666 55090838#3 55090838#4 55090838#5 55090838#6 55090838#7 55090838#8 55090838#9 55090838#11 55090838#12 55090838#13 55090838#14 55090838#15 55090838#16 55090838#17 981161568#0 981161568#1 -771870128#6 -771870128#4 -161783164#3 -161783164#2 776125789 771873305#0 776125793 -23185859#8 -23185859#4"/>
    <route id="kohuwela_delkanda" edges="55090838#0 55090838#2 55090838#3 55090838#4 55090838#5 55090838#6 55090838#7 55090838#8 55090838#9 55090838#11 55090838#12 55090838#13 55090838#14 55090838#15 55090838#16 55090838#17 981161568#0 668513668 161789385#3 161789385#4 161789385#5 161789385#6 161789385#7 161789385#8 161789385#9 524620535#0 343600488#16 -50133268#1 -23351957#9 -23351957#8 -23351957#7 -23351957#6 -23351957#5 -23351957#4 -23351957#3 -23351957#2 -23351957#1 -23351957#1.149 190918151#4 131349573 -202235454"/>
    <route id="kohuwela_pannipitiya" edges="55090838#0 55090838#2 55090838#3 55090838#4 55090838#5 55090838#6 55090838#7 55090838#8 55090838#9 55090838#11 55090838#12 55090838#13 55090838#14 55090838#15 55090838#16 55090838#17 981161568#0 981161568#1 981161570#0 981161570#1-AddedOnRampEdge 981161570#2 981161570#3 981161570#4 981161570#6 981161570#7 981161570#8 981161570#9 981161570#10 981161570#11 981161570#12 981161570#13 981161571#1 557139501 586727241 -50133268#11 -50133268#10 -50133268#9 -50133268#8 -50133268#7 -50133268#6 -50133268#5 -50133268#4 -50133268#3 -50133268#2 -50133268#1 -23351957#9 -23351957#8 -23351957#7 -23351957#6 -23351957#5 -23351957#4 -23351957#3 -23351957#2 -23351957#1 -23351957#1.149 190918151#4 131349573 131349574#1 131349574#3 131349574#5 131349574#6 131349574#8 131349574#9 131349574#11 131349574#12 131349574#14 131349574#15 131349574#16 131349574#17 131349574#18"/>
    <route id="kohuwela_piliyandala" edges="55090838#0 55090838#2 55090838#3 55090838#4 55090838#5 55090838#6 55090838#7 55090838#8 55090838#9 55090838#11 55090838#12 55090838#13 55090838#14 55090838#15 55090838#16 55090838#17 981161568#0 981161568#1 981161570#0 981161570#1-AddedOnRampEdge 981161570#2 981161570#3 981161570#4 981161570#6 981161570#7 981161570#8 981161570#9 981161570#10 981161570#11 981161570#12 981161570#13 981161571#1 981161571#2 981161572#0 981161572#1-AddedOnRampEdge 981161574#1 981161575.9"/>
    <route id="mirihana_kohuwela" edges="23185504#0 23185504#1 23185504#2 23185504#3 23185504#4 23185504#5 23185504#5.93 -190918151#3 -190918151#3.18 -190918151#2 -190918151#1 -190918151#0 -51064306#9 -51064306#8 -51064306#7 -E3 E6 -E1.19 -161789990#5 -161789990#3 -E0 -557139526#7 -557139526#6 -557139526#5 -557139526#4 -557139526#3 -557139526#2 -557139526#1 -557139526#0 -161789385#9 -161789385#8 -161789385#7 -161789385#6 -161789385#5 -161789385#4 -161789385#3 -161789385#1 981161569#0 981161569#1 -55090838#17 -55090838#16 -55090838#15 -55090838#14 -55090838#13 -55090838#12 -55090838#11 -55090838#9 -55090838#8 -55090838#7 -55090838#6 -55090838#5 -55090838#4 -55090838#3 -55090838#2 -55090838#0"/>
    <route id="mirihana_nugegoda" edges="-E4 -E2 -E2.20 -51064306#2 -50070021#2 -50070021#1"/>
    <route id="mirihana_pannipitiya" edges="-E4 E3 51064306#7 51064306#8 51064306#9 51064306#10 190918151#1 190918151#2 190918151#3 190918151#3.59 190918151#4 131349573 131349574#1 131349574#3 131349574#5 131349574#6 131349574#8 131349574#9 131349574#11 131349574#12 131349574#14 131349574#15 131349574#16 131349574#17 131349574#18"/>
    <route id="nugegoda_delkanda_piliyandala" edges="50070021#0 50070021#2 51064306#0 E2 E3 51064306#7 51064306#8 51064306#9 51064306#10 190918151#1 190918151#2 190918151#3 190918151#3.59 23351957#0 23351957#2 23351957#3 23351957#4 23351957#5 23351957#6 23351957#7 23351957#8 23351957#9 50133268#0 50133268#2 50133268#3 50133268#4 50133268#5 50133268#6 50133268#7 50133268#8 50133268#9 50133268#10 50133268#11 557140716#0 557139500 981161572#1-AddedOnRampEdge 981161574#1 981161575.9"/>
    <route id="nugegoda_jubilee_post" edges="50070021#0 50070021#2 51064306#0 E2 E3 51064306#7 51064306#8 51064306#9 51064306#10 190918151#1 190918151#2 190918151#3 E10 -23185504#6.22 -23185504#4 -23185504#3 -23185504#2 -23185504#1 -23185504#0"/>
    <route id="nugegoda_mirihana" edges="50070021#0 50070021#2 51064306#0 E2 E4"/>
    <route id="nugegoda_pannipitiya" edges="50070021#0 50070021#2 51064306#0 E2 E3 51064306#7 51064306#8 51064306#9 51064306#10 190918151#1 190918151#2 190918151#3 190918151#3.59 190918151#4 131349573 131349574#1 131349574#3 131349574#5 131349574#6 131349574#8 131349574#9 131349574#11 131349574#12 131349574#14 131349574#15 131349574#16 131349574#17 131349574#18"/>
    <route id="nugegoda_piliyandala" edges="50070021#0 50070021#2 51064306#0 E2 -E1 -E1.19 -161789990#5 -161789990#3 -E0 -557139526#7 -557139526#6 -557139526#5 -557139526#4 -53373570#5 -53373570#4 -53373570#3 -53373570#2 -53373570#1 -53373570#0 23351957#7 23351957#8 23351957#9 50133268#0 50133268#2 50133268#3 50133268#4 50133268#5 50133268#6 50133268#7 50133268#8 50133268#9 50133268#10 50133268#11 557140716#0 557139500 981161572#1-AddedOnRampEdge 981161574#1 981161575.9"/>
    <route id="pannipitiya_mirihana" edges="-131349574#18 -131349574#17 -131349574#16 -131349574#15 -131349574#14 -131349574#12 -131349574#11 -131349574#9 -131349574#8 -131349574#6 -131349574#5 -131349574#3 -131349574#1 -131349573 -190918151#4 -190918151#3 -190918151#3.18 -190918151#2 -190918151#1 -190918151#0 -51064306#9 -51064306#8 -51064306#7 -E3 -E3.150 E4"/>
    <route id="pannipitiya_nugegoda" edges="-131349574#18 -131349574#17 -131349574#16 -131349574#15 -131349574#14 -131349574#12 -131349574#11 -131349574#9 -131349574#8 -131349574#6 -131349574#5 -131349574#3 -131349574#1 -131349573 -190918151#4 -190918151#3 -190918151#3.18 -190918151#2 -190918151#1 -190918151#0 -51064306#9 -51064306#8 -51064306#7 -E3 -E3.150 -E2 -E2.20 -51064306#2 -50070021#2 -50070021#1"/>
    <route id="pannipitiya_piliyandala" edges="-131349574#18 -131349574#17 -131349574#16 -131349574#15 -131349574#14 -131349574#12 -131349574#11 -131349574#9 -131349574#8 -131349574#6 -131349574#5 -131349574#3 -131349574#1 -131349573 -190918151#4 23351957#0 23351957#2 23351957#3 23351957#4 23351957#5 23351957#6 23351957#7 23351957#8 23351957#9 50133268#0 50133268#2 50133268#3 50133268#4 50133268#5 50133268#6 50133268#7 50133268#8 50133268#9 50133268#10 50133268#11 557140716#0 557139500 981161572#1-AddedOnRampEdge 981161574#1 981161575.9"/>
    <route id="pepiliyana_delkanda" edges="-53763471#0 981161570#2 981161570#3 981161570#4 981161570#6 981161570#7 981161570#8 981161570#9 981161570#10 981161570#11 981161570#12 981161570#13 981161571#1 557139501 586727241 -50133268#11 -50133268#10 -50133268#9 -50133268#8 -50133268#7 -50133268#6 -50133268#5 -50133268#4 -50133268#3 -50133268#2 -50133268#1 -23351957#9 -23351957#8 -23351957#7 -23351957#6 -23351957#5 -23351957#4 -23351957#3 -23351957#2 174031813#0 -174031815"/>
    <route id="pepiliyana_piliyandala" edges="557139527 53373572 -557139526#2 -557139526#1 -557139526#0 -161789385#9 -161789385#8 -161789385#7 -161789385#6 -161789385#5 -161789385#4 -161789385#3 668513667 981161570#1-AddedOnRampEdge 981161570#2 981161570#3 981161570#4 981161570#6 981161570#7 981161570#8 981161570#9 981161570#10 981161570#11 981161570#12 981161570#13 981161571#1 981161571#2 981161572#0 981161572#1-AddedOnRampEdge 981161574#1 981161575.9"/>
    <route id="piliyandala_dehiwala" edges="385939357 557140714#1.13 557140715#0 557140715#1 557140715#2 23323033#2 23323033#3 23323033#4 23323033#5 23323033#6 23323033#8 23323033#9 23323033#10 23323033#11 668513666 -771870128#4 -161783164#3 -161783164#2 776125789 771873305#0 771873305#1 771873305#2 776125792 -171529265#5"/>
    <route id="piliyandala_kohuwela" edges="385939357 557140714#1.13 557140715#0 557140715#1 557140715#2 23323033#2 23323033#3 23323033#4 23323033#5 23323033#6 23323033#8 23323033#9 23323033#10 23323033#11 23323033#12 981161569#0 981161569#1 -55090838#17 -55090838#16 -55090838#15 -55090838#14 -55090838#13 -55090838#12 -55090838#11 -55090838#9 -55090838#8 -55090838#7 -55090838#6 -55090838#5 -55090838#4 -55090838#3 -55090838#2 -55090838#0"/>
    <route id="piliyandala_mirihana" edges="385939357 557140714#1.13 981161567 586727241 -50133268#11 -50133268#10 -50133268#9 -50133268#8 -50133268#7 -50133268#6 -50133268#5 -50133268#4 -50133268#3 -50133268#2 -50133268#1 -23351957#9 -23351957#8 -23351957#7 -23351957#6 -23351957#5 -23351957#4 -23351957#3 -23351957#2 -23351957#1 -23351957#1.149 -23185504#6 -23185504#6.22 -23185504#4 -23185504#3 -23185504#2 -23185504#1 -23185504#0"/>
    <route id="piliyandala_nugegoda" edges="385939357 557140714#1.13 981161567 586727241 -50133268#11 -50133268#10 -50133268#9 -50133268#8 -50133268#7 -50133268#6 -50133268#5 -50133268#4 -50133268#3 -50133268#2 -50133268#1 -23351957#9 -23351957#8 -23351957#7 -23351957#6 -23351957#5 -23351957#4 -23351957#3 -23351957#2 -23351957#1 E12 -190918151#3.18 -190918151#2 -190918151#1 -190918151#0 -51064306#9 -51064306#8 -51064306#7 -E3 -E3.150 -E2 -E2.20 -51064306#2 -50070021#2 -50070021#1"/>
    <route id="piliyandala_pepiliyana_nugegoda" edges="385939357 557140714#1.13 557140715#0 557140715#1 557140715#2 23323033#2 23323033#3 23323033#4 23323033#5 23323033#6 23323033#8 23323033#9 23323033#10 23323033#11 23323033#12 161789385#1 161789385#3 161789385#4 161789385#5 161789385#6 161789385#7 161789385#8 161789385#9 557139525#1 557139526#1 557139526#2 557139526#3 557139526#4 557139526#5 557139526#6 557139526#7 E0 161789990#2 161789990#5 E1 E5 -E2.20 -51064306#2 -50070021#2 -50070021#1"/>
    <!-- Vehicles, persons and containers (sorted by depart) -->
    <flow id="attidiya_kohuwela_bike" type="motorbike" begin="0.00" route="attidiya_kohuwela" end="3600.00" vehsPerHour="92.99922500645827483368"/>
    <flow id="attidiya_kohuwela_car" type="motorcar" begin="0.00" route="attidiya_kohuwela" end="3600.00" vehsPerHour="76.00067556156054138228"/>
    <flow id="attidiya_mirihana_bike" type="motorbike" begin="0.00" route="attidiya_mirihana" end="3600.00" vehsPerHour="87.00065250489379309329"/>
    <flow id="attidiya_mirihana_car" type="motorcar" begin="0.00" route="attidiya_mirihana" end="3600.00" vehsPerHour="62.99984250039374700236"/>
    <flow id="attidiya_nugegoda_bike" type="motorbike" begin="0.00" route="attidiya_nugegoda" end="3600.00" vehsPerHour="132.99837446431209286857"/>
    <flow id="attidiya_nugegoda_car" type="motorcar" begin="0.00" route="attidiya_nugegoda" end="3600.00" vehsPerHour="98.99901000989990507151"/>
    <flow id="attidiya_piliyandala_bike" type="motorbike" begin="0.00" route="attidiya_piliyandala" end="3600.00" vehsPerHour="157.99868334430547633929"/>
    <flow id="attidiya_piliyandala_car" type="motorcar" begin="0.00" route="attidiya_piliyandala" end="3600.00" vehsPerHour="89.00096417711192486877"/>
    <flow id="dehiwala_kohuwela_bike" type="motorbike" begin="0.00" route="dehiwala_kohuwela" end="3600.00" vehsPerHour="118.00183558410908801761"/>
    <flow id="dehiwala_kohuwela_car" type="motorcar" begin="0.00" route="dehiwala_kohuwela" end="3600.00" vehsPerHour="78.99934167215273816964"/>
    <flow id="dehiwala_nugegoda_bike" type="motorbike" begin="0.00" route="dehiwala_nugegoda" end="3600.00" vehsPerHour="68.99988500019166792754"/>
    <flow id="dehiwala_nugegoda_car" type="motorcar" begin="0.00" route="dehiwala_nugegoda" end="3600.00" vehsPerHour="58.99995083337429946369"/>
    <flow id="dehiwala_pannipitiya_bike" type="motorbike" begin="0.00" route="dehiwala_pannipitiya" end="3600.00" vehsPerHour="153.0026775468570576777"/>
    <flow id="dehiwala_pannipitiya_car" type="motorcar" begin="0.00" route="dehiwala_pannipitiya" end="3600.00" vehsPerHour="77.00040639103373507623"/>
    <flow id="delkanda_piliyandala_bike" type="motorbike" begin="0.00" route="delkanda_piliyandala" end="3600.00" vehsPerHour="84.00028000093334412668"/>
    <flow id="delkanda_piliyandala_car" type="motorcar" begin="0.00" route="delkanda_piliyandala" end="3600.00" vehsPerHour="155.99948000173330342477"/>
    <flow id="jubilee_post_pannipitiya_bike" type="motorbike" begin="0.00" route="jubilee_post_pannipitiya" end="3600.00" vehsPerHour="97.9991833401388277025"/>
    <flow id="jubilee_post_pannipitiya_car" type="motorcar" begin="0.00" route="jubilee_post_pannipitiya" end="3600.00" vehsPerHour="100.9987655706430302871"/>
    <flow id="kohuwela_attidiya_bike" type="motorbike" begin="0.00" route="kohuwela_attidiya" end="3600.00" vehsPerHour="77.99974000086665171239"/>
    <flow id="kohuwela_attidiya_car" type="motorcar" begin="0.00" route="kohuwela_attidiya" end="3600.00" vehsPerHour="165.00137501145840701611"/>
    <flow id="kohuwela_delkanda_bike" type="motorbike" begin="0.00" route="kohuwela_delkanda" end="3600.00" vehsPerHour="97.00105084471748284614"/>
    <flow id="kohuwela_delkanda_car" type="motorcar" begin="0.00" route="kohuwela_delkanda" end="3600.00" vehsPerHour="187.99937333542220585514"/>
    <flow id="kohuwela_pannipitiya_bike" type="motorbike" begin="0.00" route="kohuwela_pannipitiya" end="3600.00" vehsPerHour="71.00031555695802865102"/>
    <flow id="kohuwela_pannipitiya_car" type="motorcar" begin="0.00" route="kohuwela_pannipitiya" end="3600.00" vehsPerHour="127.00204614407677183863"/>
    <flow id="kohuwela_piliyandala_bike" type="motorbike" begin="0.00" route="kohuwela_piliyandala" end="3600.00" vehsPerHour="77.99974000086665171239"/>
    <flow id="kohuwela_piliyandala_car" type="motorcar" begin="0.00" route="kohuwela_piliyandala" end="3600.00" vehsPerHour="144.99758337361043913916"/>
    <flow id="mirihana_kohuwela_bike" type="motorbike" begin="0.00" route="mirihana_kohuwela" end="3600.00" vehsPerHour="91.00101112234580114091"/>
    <flow id="mirihana_kohuwela_car" type="motorcar" begin="0.00" route="mirihana_kohuwela" end="3600.00" vehsPerHour="142.99900695134061834324"/>
    <flow id="mirihana_nugegoda_bike" type="motorbike" begin="0.00" route="mirihana_nugegoda" end="3600.00" vehsPerHour="72"/>
    <flow id="mirihana_nugegoda_car" type="motorcar" begin="0.00" route="mirihana_nugegoda" end="3600.00" vehsPerHour="146.99877501020824865918"/>
    <flow id="mirihana_pannipitiya_bike" type="motorbike" begin="0.00" route="mirihana_pannipitiya" end="3600.00" vehsPerHour="72"/>
    <flow id="mirihana_pannipitiya_car" type="motorcar" begin="0.00" route="mirihana_pannipitiya" end="3600.00" vehsPerHour="125"/>
    <flow id="nugegoda_delkanda_piliyandala_bike" type="motorbike" begin="0.00" route="nugegoda_delkanda_piliyandala" end="3600.00" vehsPerHour="64"/>
    <flow id="nugegoda_delkanda_piliyandala_car" type="motorcar" begin="0.00" route="nugegoda_delkanda_piliyandala" end="3600.00" vehsPerHour="155.99948000173330342477"/>
    <flow id="nugegoda_jubilee_post_bike" type="motorbike" begin="0.00" route="nugegoda_jubilee_post" end="3600.00" vehsPerHour="55.99975111221727530619"/>
    <flow id="nugegoda_jubilee_post_car" type="motorcar" begin="0.00" route="nugegoda_jubilee_post" end="3600.00" vehsPerHour="89.00096417711192486877"/>
    <flow id="nugegoda_mirihana_bike" type="motorbike" begin="0.00" route="nugegoda_mirihana" end="3600.00" vehsPerHour="97.9991833401388277025"/>
    <flow id="nugegoda_mirihana_car" type="motorcar" begin="0.00" route="nugegoda_mirihana" end="3600.00" vehsPerHour="100.9987655706430302871"/>
    <flow id="nugegoda_pannipitiya_bike" type="motorbike" begin="0.00" route="nugegoda_pannipitiya" end="3600.00" vehsPerHour="86.00095556617296210788"/>
    <flow id="nugegoda_pannipitiya_car" type="motorcar" begin="0.00" route="nugegoda_pannipitiya" end="3600.00" vehsPerHour="92.99922500645827483368"/>
    <flow id="nugegoda_piliyandala_bike" type="motorbike" begin="0.00" route="nugegoda_piliyandala" end="3600.00" vehsPerHour="50"/>
    <flow id="nugegoda_piliyandala_car" type="motorcar" begin="0.00" route="nugegoda_piliyandala" end="3600.00" vehsPerHour="111.99950222443455061239"/>
    <flow id="pannipitiya_mirihana_bike" type="motorbike" begin="0.00" route="pannipitiya_mirihana" end="3600.00" vehsPerHour="60"/>
    <flow id="pannipitiya_mirihana_car" type="motorcar" begin="0.00" route="pannipitiya_mirihana" end="3600.00" vehsPerHour="144"/>
    <flow id="pannipitiya_nugegoda_bike" type="motorbike" begin="0.00" route="pannipitiya_nugegoda" end="3600.00" vehsPerHour="96"/>
    <flow id="pannipitiya_nugegoda_car" type="motorcar" begin="0.00" route="pannipitiya_nugegoda" end="3600.00" vehsPerHour="154.99870834409713893365"/>
    <flow id="pannipitiya_piliyandala_bike" type="motorbike" begin="0.00" route="pannipitiya_piliyandala" end="3600.00" vehsPerHour="77.00040639103373507623"/>
    <flow id="pannipitiya_piliyandala_car" type="motorcar" begin="0.00" route="pannipitiya_piliyandala" end="3600.00" vehsPerHour="84.99988194460840418287"/>
    <flow id="pepiliyana_delkanda_bike" type="motorbike" begin="0.00" route="pepiliyana_delkanda" end="3600.00" vehsPerHour="61.00040666937779576529"/>
    <flow id="pepiliyana_delkanda_car" type="motorcar" begin="0.00" route="pepiliyana_delkanda" end="3600.00" vehsPerHour="116.001804472514024269"/>
    <flow id="pepiliyana_piliyandala_bike" type="motorbike" begin="0.00" route="pepiliyana_piliyandala" end="3600.00" vehsPerHour="71.00031555695802865102"/>
    <flow id="pepiliyana_piliyandala_car" type="motorcar" begin="0.00" route="pepiliyana_piliyandala" end="3600.00" vehsPerHour="137.99977000038333585508"/>
    <flow id="piliyandala_dehiwala_bike" type="motorbike" begin="0.00" route="piliyandala_dehiwala" end="3600.00" vehsPerHour="78.99934167215273816964"/>
    <flow id="piliyandala_dehiwala_car" type="motorcar" begin="0.00" route="piliyandala_dehiwala" end="3600.00" vehsPerHour="156.99956389010031898579"/>
    <flow id="piliyandala_kohuwela_bike" type="motorbike" begin="0.00" route="piliyandala_kohuwela" end="3600.00" vehsPerHour="96"/>
    <flow id="piliyandala_kohuwela_car" type="motorcar" begin="0.00" route="piliyandala_kohuwela" end="3600.00" vehsPerHour="140.99953000156665439135"/>
    <flow id="piliyandala_mirihana_bike" type="motorbike" begin="0.00" route="piliyandala_mirihana" end="3600.00" vehsPerHour="73.99946555941539827472"/>
    <flow id="piliyandala_mirihana_car" type="motorcar" begin="0.00" route="piliyandala_mirihana" end="3600.00" vehsPerHour="84.00028000093334412668"/>
    <flow id="piliyandala_nugegoda_bike" type="motorbike" begin="0.00" route="piliyandala_nugegoda" end="3600.00" vehsPerHour="94.99934028235914240668"/>
    <flow id="piliyandala_nugegoda_car" type="motorcar" begin="0.00" route="piliyandala_nugegoda" end="3600.00" vehsPerHour="96"/>
    <flow id="piliyandala_pepiliyana_nugegoda_bike" type="motorbike" begin="0.00" route="piliyandala_pepiliyana_nugegoda" end="3600.00" vehsPerHour="56.99990500015832850522"/>
    <flow id="piliyandala_pepiliyana_nugegoda_car" type="motorcar" begin="0.00" route="piliyandala_pepiliyana_nugegoda" end="3600.00" vehsPerHour="128"/>
</routes>
