<?xml version="1.0" encoding="UTF-8"?>

<!-- generated on 2024-03-15 23:55:46 by Eclipse SUMO netedit Version 1.19.0
<configuration xmlns:xsi="http://www.w3.org/2001/XMLSchema-instance" xsi:noNamespaceSchemaLocation="http://sumo.dlr.de/xsd/neteditConfiguration.xsd">

    <input>
        <sumocfg-file value="D:\Workspace\Personal\fyp\fixed_time_phase\network\colombo-suburbs.sumocfg"/>
        <route-files value="D:\Workspace\Personal\fyp\fixed_time_phase\network\colombo-suburbs.rou.xml"/>
        <sumo-net-file value="colombo-suburbs.net.xml"/>
    </input>

    <output>
        <output-file value="colombo-suburbs.net.xml"/>
        <output.street-names value="true"/>
    </output>

    <processing>
        <geometry.min-radius.fix.railways value="false"/>
        <geometry.max-grade.fix value="false"/>
        <offset.disable-normalization value="true"/>
        <lefthand value="1"/>
    </processing>

    <junctions>
        <no-turnarounds value="true"/>
        <junctions.corner-detail value="5"/>
        <junctions.limit-turn-speed value="5.50"/>
        <rectangular-lane-cut value="0"/>
    </junctions>

    <pedestrian>
        <walkingareas value="0"/>
    </pedestrian>

</configuration>
-->

<net version="1.16" junctionCornerDetail="5" lefthand="true" limitTurnSpeed="5.50" xmlns:xsi="http://www.w3.org/2001/XMLSchema-instance" xsi:noNamespaceSchemaLocation="http://sumo.dlr.de/xsd/net_file.xsd">

    <location netOffset="-8891934.21,-763472.04" convBoundary="141.58,0.00,5218.16,5223.73" origBoundary="79.877604,6.842066,79.924480,6.888655" projParameter="+proj=merc +a=6378137 +b=6378137 +lat_ts=0.0 +lon_0=0.0 +x_0=0.0 +y_0=0 +k=1.0 +units=m +nadgrids=@null +wktext +no_defs"/>

    <type id="highway.primary" priority="12" numLanes="2" speed="27.78" disallow="tram rail_urban rail rail_electric rail_fast ship" oneway="0"/>
    <type id="highway.primary_link" priority="7" numLanes="1" speed="22.22" disallow="tram rail_urban rail rail_electric rail_fast ship" oneway="0"/>
    <type id="highway.residential" priority="3" numLanes="1" speed="13.89" disallow="tram rail_urban rail rail_electric rail_fast ship" oneway="0"/>
    <type id="highway.secondary" priority="11" numLanes="1" speed="27.78" disallow="tram rail_urban rail rail_electric rail_fast ship" oneway="0"/>
    <type id="highway.service" priority="1" numLanes="1" speed="5.56" allow="pedestrian delivery bicycle" oneway="0"/>
    <type id="highway.tertiary" priority="10" numLanes="1" speed="22.22" disallow="tram rail_urban rail rail_electric rail_fast ship" oneway="0"/>
    <type id="highway.trunk" priority="13" numLanes="2" speed="27.78" disallow="pedestrian bicycle tram rail_urban rail rail_electric rail_fast ship" oneway="0"/>

    <edge id=":11118267013_0" function="internal">
        <lane id=":11118267013_0_0" index="0" allow="pedestrian delivery bicycle" speed="4.98" length="5.07" shape="1569.83,1427.68 1569.07,1426.51 1568.88,1425.39 1569.27,1424.33 1570.25,1423.32"/>
    </edge>
    <edge id=":11118267013_1" function="internal">
        <lane id=":11118267013_1_0" index="0" allow="pedestrian delivery bicycle" speed="5.24" length="5.25" shape="1562.82,1429.09 1564.00,1428.44 1565.16,1428.35 1566.30,1428.80 1567.43,1429.80"/>
    </edge>
    <edge id=":11118267013_2" function="internal">
        <lane id=":11118267013_2_0" index="0" disallow="tram rail_urban rail rail_electric rail_fast ship" speed="13.89" length="9.41" shape="1562.82,1429.09 1570.25,1423.32"/>
        <lane id=":11118267013_2_1" index="1" disallow="tram rail_urban rail rail_electric rail_fast ship" speed="13.89" length="9.41" shape="1560.85,1426.56 1568.28,1420.79"/>
    </edge>
    <edge id=":11118267018_0" function="internal">
        <lane id=":11118267018_0_0" index="0" allow="pedestrian delivery bicycle" speed="2.78" length="4.67" shape="1605.83,1495.31 1606.95,1496.21 1607.84,1496.34 1608.48,1495.72 1608.87,1494.33"/>
    </edge>
    <edge id=":11415431742_0" function="internal">
        <lane id=":11415431742_0_0" index="0" disallow="tram rail_urban rail rail_electric rail_fast ship" speed="13.89" length="0.30" shape="2467.10,2065.93 2466.92,2065.69"/>
    </edge>
    <edge id=":11415431742_1" function="internal">
        <lane id=":11415431742_1_0" index="0" disallow="tram rail_urban rail rail_electric rail_fast ship" speed="13.89" length="0.30" shape="2464.30,2067.53 2464.48,2067.77"/>
    </edge>
    <edge id=":11415431763_0" function="internal">
        <lane id=":11415431763_0_0" index="0" allow="pedestrian delivery bicycle" speed="4.97" length="5.08" shape="2503.35,2112.01 2502.14,2112.73 2501.02,2112.87 2499.97,2112.43 2499.01,2111.41"/>
    </edge>
    <edge id=":11415431763_1" function="internal">
        <lane id=":11415431763_1_0" index="0" allow="pedestrian delivery bicycle" speed="7.04" length="10.19" shape="2503.35,2112.01 2501.38,2114.09 2500.47,2116.27 2500.61,2118.56 2501.80,2120.95"/>
    </edge>
    <edge id=":11415431763_2" function="internal">
        <lane id=":11415431763_2_0" index="0" allow="pedestrian delivery bicycle" speed="3.65" length="4.67" shape="2503.35,2112.01 2502.92,2113.39 2503.12,2114.26 2503.93,2114.63 2505.37,2114.50"/>
    </edge>
    <edge id=":11415431763_3" function="internal">
        <lane id=":11415431763_3_0" index="0" allow="pedestrian delivery bicycle" speed="5.28" length="5.29" shape="2504.42,2119.11 2503.83,2117.91 2503.79,2116.73 2504.31,2115.60 2505.37,2114.50"/>
    </edge>
    <edge id=":11415431763_4" function="internal">
        <lane id=":11415431763_4_0" index="0" disallow="tram rail_urban rail rail_electric rail_fast ship" speed="13.89" length="9.42" shape="2504.42,2119.11 2499.01,2111.41"/>
    </edge>
    <edge id=":11415431763_5" function="internal">
        <lane id=":11415431763_5_0" index="0" disallow="tram rail_urban rail rail_electric rail_fast ship" speed="13.89" length="9.42" shape="2496.39,2113.24 2501.80,2120.95"/>
    </edge>
    <edge id=":11415431763_6" function="internal">
        <lane id=":11415431763_6_0" index="0" allow="pedestrian delivery bicycle" speed="6.81" length="3.33" shape="2496.39,2113.24 2498.38,2115.36 2498.77,2115.52"/>
    </edge>
    <edge id=":11415431763_7" function="internal">
        <lane id=":11415431763_7_0" index="0" allow="pedestrian delivery bicycle" speed="6.81" length="7.18" shape="2498.77,2115.52 2500.54,2116.28 2502.87,2115.99 2505.37,2114.50"/>
    </edge>
    <edge id=":11415431765_0" function="internal">
        <lane id=":11415431765_0_0" index="0" allow="pedestrian delivery bicycle" speed="3.65" length="4.67" shape="2538.49,2091.04 2539.02,2089.70 2538.89,2088.82 2538.11,2088.39 2536.67,2088.42"/>
    </edge>
    <edge id=":11489668126_0" function="internal">
        <lane id=":11489668126_0_0" index="0" disallow="tram rail_urban rail rail_electric rail_fast ship" speed="3.65" length="4.67" shape="2576.57,2431.38 2577.42,2432.55 2578.23,2432.92 2579.02,2432.49 2579.77,2431.26"/>
    </edge>
    <edge id=":11489668128_0" function="internal">
        <lane id=":11489668128_0_0" index="0" disallow="pedestrian bicycle tram rail_urban rail rail_electric rail_fast ship" speed="13.89" length="14.38" shape="2579.57,2363.54 2565.86,2367.74"/>
        <lane id=":11489668128_0_1" index="1" disallow="pedestrian bicycle tram rail_urban rail rail_electric rail_fast ship" speed="13.89" length="14.38" shape="2580.56,2366.59 2566.77,2370.81"/>
    </edge>
    <edge id=":11489668128_2" function="internal">
        <lane id=":11489668128_2_0" index="0" disallow="pedestrian bicycle tram rail_urban rail rail_electric rail_fast ship" speed="9.71" length="2.93" shape="2580.56,2366.59 2578.06,2368.12"/>
    </edge>
    <edge id=":11489668128_3" function="internal">
        <lane id=":11489668128_3_0" index="0" disallow="pedestrian bicycle tram rail_urban rail rail_electric rail_fast ship" speed="3.65" length="1.44" shape="2580.56,2366.59 2579.66,2367.72"/>
    </edge>
    <edge id=":11489668128_11" function="internal">
        <lane id=":11489668128_11_0" index="0" disallow="pedestrian bicycle tram rail_urban rail rail_electric rail_fast ship" speed="9.71" length="14.00" shape="2578.06,2368.12 2577.78,2368.28 2575.87,2371.30 2574.82,2375.63 2574.63,2381.28"/>
    </edge>
    <edge id=":11489668128_12" function="internal">
        <lane id=":11489668128_12_0" index="0" disallow="pedestrian bicycle tram rail_urban rail rail_electric rail_fast ship" speed="3.65" length="3.23" shape="2579.66,2367.72 2579.53,2368.60 2580.15,2369.24 2581.54,2369.63"/>
    </edge>
    <edge id=":11489668128_4" function="internal">
        <lane id=":11489668128_4_0" index="0" disallow="pedestrian bicycle tram rail_urban rail rail_electric rail_fast ship" speed="7.75" length="10.48" shape="2577.83,2381.16 2578.02,2378.05 2578.87,2375.60 2580.37,2373.81 2582.52,2372.68"/>
    </edge>
    <edge id=":11489668128_5" function="internal">
        <lane id=":11489668128_5_0" index="0" disallow="pedestrian bicycle tram rail_urban rail rail_electric rail_fast ship" speed="8.32" length="18.37" shape="2577.83,2381.16 2576.94,2375.46 2574.80,2371.84 2571.41,2370.29 2566.77,2370.81"/>
    </edge>
    <edge id=":11489668128_6" function="internal">
        <lane id=":11489668128_6_0" index="0" disallow="tram rail_urban rail rail_electric rail_fast ship" speed="3.65" length="4.67" shape="2577.83,2381.16 2576.98,2379.99 2576.17,2379.62 2575.38,2380.05 2574.63,2381.28"/>
    </edge>
    <edge id=":11489668128_7" function="internal">
        <lane id=":11489668128_7_0" index="0" disallow="pedestrian bicycle tram rail_urban rail rail_electric rail_fast ship" speed="6.03" length="9.07" shape="2568.59,2376.95 2571.14,2376.57 2573.00,2377.17 2574.17,2378.74 2574.63,2381.28"/>
    </edge>
    <edge id=":11489668128_8" function="internal">
        <lane id=":11489668128_8_0" index="0" disallow="pedestrian bicycle tram rail_urban rail rail_electric rail_fast ship" speed="13.89" length="14.54" shape="2568.59,2376.95 2582.52,2372.68"/>
        <lane id=":11489668128_8_1" index="1" disallow="pedestrian bicycle tram rail_urban rail rail_electric rail_fast ship" speed="13.89" length="14.54" shape="2567.68,2373.88 2581.54,2369.63"/>
    </edge>
    <edge id=":11489668128_10" function="internal">
        <lane id=":11489668128_10_0" index="0" disallow="pedestrian bicycle tram rail_urban rail rail_electric rail_fast ship" speed="3.65" length="1.44" shape="2567.68,2373.88 2568.60,2372.77"/>
    </edge>
    <edge id=":11489668128_13" function="internal">
        <lane id=":11489668128_13_0" index="0" disallow="pedestrian bicycle tram rail_urban rail rail_electric rail_fast ship" speed="3.65" length="3.23" shape="2568.60,2372.77 2568.76,2371.89 2568.15,2371.24 2566.77,2370.81"/>
    </edge>
    <edge id=":11489668131_0" function="internal">
        <lane id=":11489668131_0_0" index="0" disallow="tram rail_urban rail rail_electric rail_fast ship" speed="3.65" length="4.67" shape="2523.93,2479.87 2525.32,2479.48 2525.95,2478.85 2525.82,2477.96 2524.93,2476.83"/>
    </edge>
    <edge id=":11506611475_0" function="internal">
        <lane id=":11506611475_0_0" index="0" disallow="tram rail_urban rail rail_electric rail_fast ship" speed="3.65" length="4.67" shape="1798.12,1089.04 1796.77,1089.54 1796.19,1090.23 1796.40,1091.10 1797.38,1092.16"/>
    </edge>
    <edge id=":11506611479_0" function="internal">
        <lane id=":11506611479_0_0" index="0" disallow="tram rail_urban rail rail_electric rail_fast ship" speed="6.99" length="9.61" shape="1878.32,1102.66 1877.12,1104.80 1875.42,1106.12 1873.21,1106.63 1870.49,1106.32"/>
    </edge>
    <edge id=":11506611479_1" function="internal">
        <lane id=":11506611479_1_0" index="0" disallow="tram rail_urban rail rail_electric rail_fast ship" speed="13.89" length="14.36" shape="1878.32,1102.66 1873.47,1116.23"/>
        <lane id=":11506611479_1_1" index="1" disallow="tram rail_urban rail rail_electric rail_fast ship" speed="13.89" length="14.36" shape="1881.32,1103.78 1876.49,1117.27"/>
    </edge>
    <edge id=":11506611479_3" function="internal">
        <lane id=":11506611479_3_0" index="0" disallow="tram rail_urban rail rail_electric rail_fast ship" speed="6.30" length="9.04" shape="1869.74,1109.44 1872.08,1110.36 1873.48,1111.80 1873.94,1113.76 1873.47,1116.23"/>
    </edge>
    <edge id=":11506611479_4" function="internal">
        <lane id=":11506611479_4_0" index="0" disallow="tram rail_urban rail rail_electric rail_fast ship" speed="3.65" length="4.67" shape="1869.74,1109.44 1871.10,1108.94 1871.67,1108.25 1871.47,1107.38 1870.49,1106.32"/>
    </edge>
    <edge id=":11514220300_0" function="internal">
        <lane id=":11514220300_0_0" index="0" disallow="tram rail_urban rail rail_electric rail_fast ship" speed="3.65" length="4.67" shape="1706.45,1798.26 1705.77,1799.54 1705.80,1800.43 1706.54,1800.95 1707.97,1801.08"/>
    </edge>
    <edge id=":11514220302_0" function="internal">
        <lane id=":11514220302_0_0" index="0" disallow="tram rail_urban rail rail_electric rail_fast ship" speed="13.89" length="14.41" shape="1773.59,1771.93 1766.16,1759.58"/>
    </edge>
    <edge id=":11514220302_1" function="internal">
        <lane id=":11514220302_1_0" index="0" disallow="tram rail_urban rail rail_electric rail_fast ship" speed="8.17" length="3.98" shape="1773.59,1771.93 1771.17,1768.98 1771.02,1768.90"/>
    </edge>
    <edge id=":11514220302_6" function="internal">
        <lane id=":11514220302_6_0" index="0" disallow="tram rail_urban rail rail_electric rail_fast ship" speed="8.17" length="10.28" shape="1771.02,1768.90 1768.32,1767.47 1765.04,1767.41 1761.34,1768.79"/>
    </edge>
    <edge id=":11514220302_2" function="internal">
        <lane id=":11514220302_2_0" index="0" disallow="tram rail_urban rail rail_electric rail_fast ship" speed="6.71" length="9.29" shape="1762.85,1771.61 1765.28,1770.70 1767.43,1770.72 1769.28,1771.68 1770.85,1773.58"/>
    </edge>
    <edge id=":11514220302_3" function="internal">
        <lane id=":11514220302_3_0" index="0" disallow="tram rail_urban rail rail_electric rail_fast ship" speed="7.91" length="14.39" shape="1762.85,1771.61 1766.05,1769.25 1767.67,1766.47 1767.70,1763.24 1766.16,1759.58"/>
    </edge>
    <edge id=":11514220302_4" function="internal">
        <lane id=":11514220302_4_0" index="0" disallow="tram rail_urban rail rail_electric rail_fast ship" speed="6.40" length="9.04" shape="1763.42,1761.24 1764.39,1763.53 1764.36,1765.56 1763.35,1767.31 1761.34,1768.79"/>
    </edge>
    <edge id=":11514220302_5" function="internal">
        <lane id=":11514220302_5_0" index="0" disallow="tram rail_urban rail rail_electric rail_fast ship" speed="13.89" length="14.41" shape="1763.42,1761.24 1770.85,1773.58"/>
    </edge>
    <edge id=":11549242411_0" function="internal">
        <lane id=":11549242411_0_0" index="0" disallow="tram rail_urban rail rail_electric rail_fast ship" speed="8.33" length="0.65" shape="1350.30,2383.56 1350.14,2383.46 1350.03,2383.40 1349.91,2383.34 1349.73,2383.26"/>
    </edge>
    <edge id=":11549242411_1" function="internal">
        <lane id=":11549242411_1_0" index="0" disallow="tram rail_urban rail rail_electric rail_fast ship" speed="3.65" length="2.34" shape="1350.30,2383.56 1348.86,2383.61 1348.10,2384.08"/>
    </edge>
    <edge id=":11549242411_4" function="internal">
        <lane id=":11549242411_4_0" index="0" disallow="tram rail_urban rail rail_electric rail_fast ship" speed="3.65" length="2.34" shape="1348.10,2384.08 1348.02,2384.97 1348.62,2386.29"/>
    </edge>
    <edge id=":11549242411_2" function="internal">
        <lane id=":11549242411_2_0" index="0" disallow="tram rail_urban rail rail_electric rail_fast ship" speed="8.33" length="0.22" shape="1348.43,2386.18 1348.49,2386.21 1348.53,2386.23 1348.57,2386.25 1348.62,2386.29"/>
    </edge>
    <edge id=":11549242411_3" function="internal">
        <lane id=":11549242411_3_0" index="0" disallow="tram rail_urban rail rail_electric rail_fast ship" speed="3.65" length="2.34" shape="1348.43,2386.18 1349.85,2385.94 1350.54,2385.37"/>
    </edge>
    <edge id=":11549242411_5" function="internal">
        <lane id=":11549242411_5_0" index="0" disallow="tram rail_urban rail rail_electric rail_fast ship" speed="3.65" length="2.34" shape="1350.54,2385.37 1350.50,2384.48 1349.73,2383.26"/>
    </edge>
    <edge id=":11549242422_0" function="internal">
        <lane id=":11549242422_0_0" index="0" disallow="tram rail_urban rail rail_electric rail_fast ship" speed="3.65" length="4.67" shape="1194.91,2462.15 1196.35,2462.32 1197.17,2461.97 1197.38,2461.10 1196.99,2459.71"/>
    </edge>
    <edge id=":11549247154_0" function="internal">
        <lane id=":11549247154_0_0" index="0" disallow="tram rail_urban rail rail_electric rail_fast ship" speed="8.33" length="0.30" shape="1303.60,2359.77 1303.35,2359.62"/>
    </edge>
    <edge id=":11549247154_1" function="internal">
        <lane id=":11549247154_1_0" index="0" disallow="tram rail_urban rail rail_electric rail_fast ship" speed="8.33" length="0.30" shape="1301.75,2362.39 1302.02,2362.54"/>
    </edge>
    <edge id=":11575892560_0" function="internal">
        <lane id=":11575892560_0_0" index="0" allow="pedestrian delivery bicycle" speed="3.65" length="4.67" shape="2287.27,1587.33 2288.47,1586.54 2288.88,1585.74 2288.49,1584.94 2287.29,1584.13"/>
    </edge>
    <edge id=":11575892561_0" function="internal">
        <lane id=":11575892561_0_0" index="0" allow="pedestrian delivery bicycle" speed="5.25" length="5.26" shape="2232.02,1583.73 2230.52,1583.53 2229.42,1582.96 2228.74,1582.02 2228.45,1580.70"/>
    </edge>
    <edge id=":11575892561_1" function="internal">
        <lane id=":11575892561_1_0" index="0" allow="pedestrian delivery bicycle" speed="6.81" length="10.47" shape="2232.02,1583.73 2229.15,1584.12 2227.15,1585.34 2226.03,1587.39 2225.77,1590.28"/>
    </edge>
    <edge id=":11575892561_2" function="internal">
        <lane id=":11575892561_2_0" index="0" allow="pedestrian delivery bicycle" speed="3.65" length="4.67" shape="2232.02,1583.73 2230.81,1584.52 2230.40,1585.31 2230.80,1586.12 2231.99,1586.93"/>
    </edge>
    <edge id=":11575892561_3" function="internal">
        <lane id=":11575892561_3_0" index="0" allow="pedestrian delivery bicycle" speed="4.98" length="5.08" shape="2228.97,1590.10 2229.09,1588.70 2229.64,1587.71 2230.60,1587.12 2231.99,1586.93"/>
    </edge>
    <edge id=":11575892561_4" function="internal">
        <lane id=":11575892561_4_0" index="0" disallow="tram rail_urban rail rail_electric rail_fast ship" speed="13.89" length="9.41" shape="2228.97,1590.10 2228.45,1580.70"/>
    </edge>
    <edge id=":11575892561_5" function="internal">
        <lane id=":11575892561_5_0" index="0" disallow="tram rail_urban rail rail_electric rail_fast ship" speed="13.89" length="9.41" shape="2225.26,1580.88 2225.77,1590.28"/>
    </edge>
    <edge id=":11575892561_6" function="internal">
        <lane id=":11575892561_6_0" index="0" allow="pedestrian delivery bicycle" speed="7.02" length="3.15" shape="2225.26,1580.88 2225.80,1583.51 2226.06,1583.89"/>
    </edge>
    <edge id=":11575892561_7" function="internal">
        <lane id=":11575892561_7_0" index="0" allow="pedestrian delivery bicycle" speed="7.02" length="7.04" shape="2226.06,1583.89 2227.10,1585.39 2229.17,1586.53 2231.99,1586.93"/>
    </edge>
    <edge id=":11575994213_0" function="internal">
        <lane id=":11575994213_0_0" index="0" disallow="tram rail_urban rail rail_electric rail_fast ship" speed="3.65" length="4.67" shape="1582.37,1685.06 1583.26,1686.20 1584.09,1686.54 1584.86,1686.08 1585.57,1684.82"/>
    </edge>
    <edge id=":11578018689_0" function="internal">
        <lane id=":11578018689_0_0" index="0" allow="pedestrian delivery bicycle" speed="3.65" length="4.67" shape="2610.18,2232.22 2608.81,2231.77 2607.94,2231.96 2607.56,2232.77 2607.68,2234.20"/>
    </edge>
    <edge id=":1205349452_0" function="internal">
        <lane id=":1205349452_0_0" index="0" disallow="tram rail_urban rail rail_electric rail_fast ship" speed="13.89" length="14.61" shape="2222.81,911.21 2222.32,925.81"/>
    </edge>
    <edge id=":1205349452_1" function="internal">
        <lane id=":1205349452_1_0" index="0" disallow="tram rail_urban rail rail_electric rail_fast ship" speed="7.53" length="4.37" shape="2222.81,911.21 2223.36,915.54"/>
    </edge>
    <edge id=":1205349452_2" function="internal">
        <lane id=":1205349452_2_0" index="0" disallow="tram rail_urban rail rail_electric rail_fast ship" speed="3.65" length="1.44" shape="2222.81,911.21 2223.60,912.42"/>
    </edge>
    <edge id=":1205349452_9" function="internal">
        <lane id=":1205349452_9_0" index="0" disallow="tram rail_urban rail rail_electric rail_fast ship" speed="7.53" length="11.34" shape="2223.36,915.54 2223.39,915.72 2225.26,918.45 2228.43,919.38 2232.90,918.52"/>
    </edge>
    <edge id=":1205349452_10" function="internal">
        <lane id=":1205349452_10_0" index="0" disallow="tram rail_urban rail rail_electric rail_fast ship" speed="3.65" length="3.23" shape="2223.60,912.42 2224.39,912.83 2225.20,912.44 2226.01,911.25"/>
    </edge>
    <edge id=":1205349452_3" function="internal">
        <lane id=":1205349452_3_0" index="0" disallow="tram rail_urban rail rail_electric rail_fast ship" speed="5.89" length="9.11" shape="2231.86,915.49 2229.27,915.99 2227.43,915.45 2226.34,913.87 2226.01,911.25"/>
    </edge>
    <edge id=":1205349452_4" function="internal">
        <lane id=":1205349452_4_0" index="0" disallow="tram rail_urban rail rail_electric rail_fast ship" speed="9.70" length="14.95" shape="2231.86,915.49 2227.85,917.31 2224.92,919.63 2223.08,922.47 2222.32,925.81"/>
    </edge>
    <edge id=":1205349452_5" function="internal">
        <lane id=":1205349452_5_0" index="0" disallow="tram rail_urban rail rail_electric rail_fast ship" speed="3.65" length="4.67" shape="2231.86,915.49 2230.98,916.64 2230.86,917.53 2231.50,918.15 2232.90,918.52"/>
    </edge>
    <edge id=":1205349452_6" function="internal">
        <lane id=":1205349452_6_0" index="0" disallow="tram rail_urban rail rail_electric rail_fast ship" speed="8.44" length="11.16" shape="2225.51,926.01 2226.09,923.64 2227.51,921.61 2229.78,919.90 2232.90,918.52"/>
    </edge>
    <edge id=":1205349452_7" function="internal">
        <lane id=":1205349452_7_0" index="0" disallow="tram rail_urban rail rail_electric rail_fast ship" speed="13.89" length="14.76" shape="2225.51,926.01 2226.01,911.25"/>
    </edge>
    <edge id=":1205349452_8" function="internal">
        <lane id=":1205349452_8_0" index="0" disallow="tram rail_urban rail rail_electric rail_fast ship" speed="3.65" length="1.44" shape="2225.51,926.01 2224.79,924.76"/>
    </edge>
    <edge id=":1205349452_11" function="internal">
        <lane id=":1205349452_11_0" index="0" disallow="tram rail_urban rail rail_electric rail_fast ship" speed="3.65" length="3.23" shape="2224.79,924.76 2224.01,924.31 2223.19,924.66 2222.32,925.81"/>
    </edge>
    <edge id=":1205349454_0" function="internal">
        <lane id=":1205349454_0_0" index="0" disallow="tram rail_urban rail rail_electric rail_fast ship" speed="3.65" length="4.67" shape="2295.96,896.90 2296.83,895.76 2296.95,894.87 2296.32,894.24 2294.92,893.88"/>
    </edge>
    <edge id=":1694124465_0" function="internal">
        <lane id=":1694124465_0_0" index="0" disallow="pedestrian bicycle tram rail_urban rail rail_electric rail_fast ship" speed="13.89" length="0.24" shape="3778.49,1560.08 3778.29,1560.17"/>
        <lane id=":1694124465_0_1" index="1" disallow="pedestrian bicycle tram rail_urban rail rail_electric rail_fast ship" speed="13.89" length="0.24" shape="3779.90,1562.95 3779.66,1563.06"/>
    </edge>
    <edge id=":1694124465_2" function="internal">
        <lane id=":1694124465_2_0" index="0" disallow="pedestrian bicycle tram rail_urban rail rail_electric rail_fast ship" speed="3.65" length="2.34" shape="3779.90,1562.95 3779.17,1564.20 3779.16,1565.09"/>
    </edge>
    <edge id=":1694124465_6" function="internal">
        <lane id=":1694124465_6_0" index="0" disallow="pedestrian bicycle tram rail_urban rail rail_electric rail_fast ship" speed="3.65" length="2.34" shape="3779.16,1565.09 3779.87,1565.63 3781.30,1565.82"/>
    </edge>
    <edge id=":1694124465_3" function="internal">
        <lane id=":1694124465_3_0" index="0" disallow="pedestrian bicycle tram rail_urban rail rail_electric rail_fast ship" speed="13.89" length="0.34" shape="3782.39,1568.85 3782.71,1568.70"/>
        <lane id=":1694124465_3_1" index="1" disallow="pedestrian bicycle tram rail_urban rail rail_electric rail_fast ship" speed="13.89" length="0.34" shape="3781.02,1565.96 3781.30,1565.82"/>
    </edge>
    <edge id=":1694124465_5" function="internal">
        <lane id=":1694124465_5_0" index="0" disallow="pedestrian bicycle tram rail_urban rail rail_electric rail_fast ship" speed="3.65" length="2.34" shape="3781.02,1565.96 3781.77,1564.72 3781.79,1563.83"/>
    </edge>
    <edge id=":1694124465_7" function="internal">
        <lane id=":1694124465_7_0" index="0" disallow="pedestrian bicycle tram rail_urban rail rail_electric rail_fast ship" speed="3.65" length="2.34" shape="3781.79,1563.83 3781.08,1563.28 3779.66,1563.06"/>
    </edge>
    <edge id=":1694124597_0" function="internal">
        <lane id=":1694124597_0_0" index="0" disallow="pedestrian bicycle tram rail_urban rail rail_electric rail_fast ship" speed="13.89" length="0.17" shape="3749.23,1573.88 3749.15,1573.91"/>
        <lane id=":1694124597_0_1" index="1" disallow="pedestrian bicycle tram rail_urban rail rail_electric rail_fast ship" speed="13.89" length="0.17" shape="3750.59,1576.77 3750.36,1576.87"/>
    </edge>
    <edge id=":1694124597_2" function="internal">
        <lane id=":1694124597_2_0" index="0" disallow="pedestrian bicycle tram rail_urban rail rail_electric rail_fast ship" speed="3.65" length="2.34" shape="3750.59,1576.77 3749.85,1578.01 3749.83,1578.90"/>
    </edge>
    <edge id=":1694124597_6" function="internal">
        <lane id=":1694124597_6_0" index="0" disallow="pedestrian bicycle tram rail_urban rail rail_electric rail_fast ship" speed="3.65" length="2.34" shape="3749.83,1578.90 3750.53,1579.45 3751.96,1579.67"/>
    </edge>
    <edge id=":1694124597_3" function="internal">
        <lane id=":1694124597_3_0" index="0" disallow="pedestrian bicycle tram rail_urban rail rail_electric rail_fast ship" speed="13.89" length="0.51" shape="3752.78,1582.80 3753.32,1582.56"/>
        <lane id=":1694124597_3_1" index="1" disallow="pedestrian bicycle tram rail_urban rail rail_electric rail_fast ship" speed="13.89" length="0.51" shape="3751.57,1579.84 3751.96,1579.67"/>
    </edge>
    <edge id=":1694124597_5" function="internal">
        <lane id=":1694124597_5_0" index="0" disallow="pedestrian bicycle tram rail_urban rail rail_electric rail_fast ship" speed="3.65" length="2.34" shape="3751.57,1579.84 3752.38,1578.64 3752.44,1577.75"/>
    </edge>
    <edge id=":1694124597_7" function="internal">
        <lane id=":1694124597_7_0" index="0" disallow="pedestrian bicycle tram rail_urban rail rail_electric rail_fast ship" speed="3.65" length="2.34" shape="3752.44,1577.75 3751.77,1577.16 3750.36,1576.87"/>
    </edge>
    <edge id=":1736148623_0" function="internal">
        <lane id=":1736148623_0_0" index="0" disallow="tram rail_urban rail rail_electric rail_fast ship" speed="3.65" length="4.67" shape="1724.91,956.69 1724.18,955.45 1723.40,955.00 1722.58,955.36 1721.71,956.51"/>
    </edge>
    <edge id=":1737436578_0" function="internal">
        <lane id=":1737436578_0_0" index="0" disallow="tram rail_urban rail rail_electric rail_fast ship" speed="20.84" length="6.87" shape="824.30,1281.42 824.12,1283.42 824.35,1284.83 824.55,1286.24 824.33,1288.24"/>
    </edge>
    <edge id=":1737436578_1" function="internal">
        <lane id=":1737436578_1_0" index="0" disallow="tram rail_urban rail rail_electric rail_fast ship" speed="13.64" length="6.28" shape="828.15,1288.20 827.63,1286.40 827.27,1285.14 827.18,1283.88 827.44,1282.06"/>
    </edge>
    <edge id=":1737436593_0" function="internal">
        <lane id=":1737436593_0_0" index="0" disallow="tram rail_urban rail rail_electric rail_fast ship" speed="20.84" length="5.80" shape="858.98,1320.35 857.27,1320.13 856.12,1319.86 854.97,1319.59 853.27,1319.36"/>
    </edge>
    <edge id=":1737436593_1" function="internal">
        <lane id=":1737436593_1_0" index="0" disallow="tram rail_urban rail rail_electric rail_fast ship" speed="8.75" length="3.85" shape="855.05,1324.29 856.06,1323.79 856.81,1323.53 857.60,1323.47 858.73,1323.54"/>
    </edge>
    <edge id=":1737485364_0" function="internal">
        <lane id=":1737485364_0_0" index="0" disallow="tram rail_urban rail rail_electric rail_fast ship" speed="6.90" length="9.05" shape="978.54,1335.07 977.22,1337.20 975.56,1338.53 973.56,1339.04 971.22,1338.76"/>
    </edge>
    <edge id=":1737485364_1" function="internal">
        <lane id=":1737485364_1_0" index="0" disallow="tram rail_urban rail rail_electric rail_fast ship" speed="8.01" length="13.79" shape="978.54,1335.07 977.49,1338.68 977.81,1341.80 979.52,1344.43 982.61,1346.57"/>
    </edge>
    <edge id=":1737485364_2" function="internal">
        <lane id=":1737485364_2_0" index="0" disallow="tram rail_urban rail rail_electric rail_fast ship" speed="6.51" length="8.78" shape="984.04,1343.71 982.08,1342.35 980.99,1340.68 980.78,1338.69 981.46,1336.40"/>
    </edge>
    <edge id=":1737485364_3" function="internal">
        <lane id=":1737485364_3_0" index="0" disallow="tram rail_urban rail rail_electric rail_fast ship" speed="13.89" length="13.77" shape="984.04,1343.71 980.83,1342.18 977.77,1340.89 974.63,1339.78 971.22,1338.76"/>
    </edge>
    <edge id=":1737485364_4" function="internal">